% ------------- DIRECT, ADJOINT, AND LINEARIZED PROBLEM DEFINITION ------------%                  
SOLVER= RANS
KIND_TURB_MODEL= SST
SST_OPTIONS= V1994m
SST_CONSTANTS = (0.85, 1.0, 0.5, 0.856) % default values 0.85,1.0,0.5,0.856
%% Transition model (NONE, LM)
KIND_TRANS_MODEL= LM
HROUGHNESS= 1.0e-8
LM_OPTIONS = MENTER_LANGTRY
MATH_PROBLEM= DIRECT
RESTART_SOL= NO 
% -------------------- COMPRESSIBLE FREE-STREAM DEFINITION --------------------%
MACH_NUMBER= 0.5877
AOA= 0.0
FREESTREAM_PRESSURE= 101325.0
FREESTREAM_TEMPERATURE=  288.15
FREESTREAM_DENSITY= 1.225
REYNOLDS_NUMBER= 7.63E5
REYNOLDS_LENGTH= 0.05574
FREESTREAM_OPTION= TEMPERATURE_FS
FREESTREAM_TURBULENCEINTENSITY = 0.01
FREESTREAM_TURB2LAMVISCRATIO = 100.0
FREESTREAM_VELOCITY= ( 0.0, 0.00, 200.00 )
INIT_OPTION= TD_CONDITIONS
LIMIT_TEMPERATURE= YES
MAX_TEMPERATURE_LIMIT= 1000.0
MIN_TEMPERATURE_LIMIT= 100.0 
% ---------------------- REFERENCE VALUE DEFINITION ---------------------------%
REF_ORIGIN_MOMENT_X = 0.00
REF_ORIGIN_MOMENT_Y = 0.00
REF_ORIGIN_MOMENT_Z = 0.00
REF_AREA= 1.0
REF_DIMENSIONALIZATION= DIMENSIONAL
% ------------------------------ EQUATION OF STATE ----------------------------%
FLUID_MODEL= STANDARD_AIR
GAMMA_VALUE= 1.4
GAS_CONSTANT= 287.058
CRITICAL_TEMPERATURE= 273.15
CRITICAL_PRESSURE= 101325.0
ACENTRIC_FACTOR= 0.035 
% --------------------------- VISCOSITY MODEL ---------------------------------%
VISCOSITY_MODEL= SUTHERLAND
MU_CONSTANT= 1.716E-5
MU_REF= 1.716E-5
MU_T_REF= 273.15
SUTHERLAND_CONSTANT= 110.4
% --------------------------- THERMAL CONDUCTIVITY MODEL ----------------------%
CONDUCTIVITY_MODEL= CONSTANT_PRANDTL
% -------------------- BOUNDARY CONDITION DEFINITION --------------------------%
MARKER_HEATFLUX= (HUB_out, 0.0, HUB_in, 0.0,BLADE, 0.0, HUB, 0.0, SHROUD, 0.0)
MARKER_PERIODIC= (PER1, PER2, 0.0, 0.0, 0.0, 0.0, 0.0, 10, 0.0, 0.0, 0.0)
%-------- INFLOW/OUTFLOW BOUNDARY CONDITION SPECIFIC FOR TURBOMACHINERY --------%
MARKER_TURBOMACHINERY= (INFLOW, OUTFLOW)
MARKER_ANALYZE = (INFLOW, OUTFLOW)
INLET_TYPE= TOTAL_CONDITIONS
SPECIFIED_INLET_PROFILE=YES
INLET_INTERPOLATION_FUNCTION=LINEAR_1D
INLET_INTERPOLATION_DATA_TYPE=ALPHA_PHI
PRINT_INLET_INTERPOLATED_DATA=YES
INLET_MATCHING_TOLERANCE=1E-6
INLET_FILENAME=inletprofile.dat
MARKER_INLET= (INFLOW,288.15, 101325, 0.0, 0.0, 1.0)
MARKER_GILES= (OUTFLOW, RADIAL_EQUILIBRIUM, 120000, 0.0, 0.0, 0.0, 0.0 , 0.3, 0.0)%1.0, 1.0
SPATIAL_FOURIER= NO 
GILES_EXTRA_RELAXFACTOR= (0.95, 0.005)
USE_SPC_IN_PRESSURE=NO
SPC_PRESSURE=100000
%MARKER_WALL_FUNCTIONS=(BLADE_1,STANDARD_WALL_FUNCTION)
%WALLMODEL_MINYPLUS= 0.00001
% ----------------------- DYNAMIC MESH DEFINITION -----------------------------%
% Type of dynamic mesh (NONE, ROTATING_FRAME)
GRID_MOVEMENT= ROTATING_FRAME
%
% Motion mach number (non-dimensional). Used for intitializing a viscous flow
% with the Reynolds number and for computing force coeffs. with dynamic meshes.
MACH_MOTION= 0.8
MOTION_ORIGIN= 0.0 0.0 0.0
% Angular velocity vector (rad/s) about the motion origi. Example 1250 RPM -> 130.89969389957471 rad/s 7508.3 
ROTATION_RATE= 0.0 0.0 -1800
% Specify ramp option fr rotating frame (YES, NO) default NO
RAMP_ROTATING_FRAME= NO  
% Parameters of the rotating frame ramp (starting rotational speed, updating-iteration-frequency, total number of iteration for the ramp)
RAMP_ROTATING_FRAME_COEFF= (-1400.0, 1000.0, 1000)
%---------------------------- TURBOMACHINERY SIMULATION -----------------------------%
% Format: (marker)
% If the ROTATING_FRAME option is activated, this option force
% the velocity on the boundaries specified to 0.0
MARKER_SHROUD= (SHROUD,HUB_in,HUB_out)%
TURBOMACHINERY_KIND= AXIAL
TURBO_PERF_KIND= (COMPRESSOR)
MIXINGPLANE_INTERFACE_KIND= LINEAR_INTERPOLATION
TURBULENT_MIXINGPLANE= YES
RAMP_OUTLET_PRESSURE= NO
RAMP_OUTLET_PRESSURE_COEFF= (95000.0, 10.0, 2000)%(140000.0, 10.0, 2000)
AVERAGE_PROCESS_KIND= MIXEDOUT
PERFORMANCE_AVERAGE_PROCESS_KIND= MIXEDOUT
MIXEDOUT_COEFF= (1.0, 1.0E-05, 15)
AVERAGE_MACH_LIMIT= 0.03
% ------------------------ SURFACES IDENTIFICATION ----------------------------%
MARKER_PLOTTING= (BLADE)
MARKER_MONITORING= (BLADE)
% ------------- COMMON PARAMETERS DEFINING THE NUMERICAL METHOD ---------------%
NUM_METHOD_GRAD= WEIGHTED_LEAST_SQUARES
CFL_NUMBER= 5.0
CFL_ADAPT= YES
CFL_ADAPT_PARAM= ( 0.95, 1.05, 1.0, 20.0)
% ------------------------ LINEAR SOLVER DEFINITION ---------------------------%
LINEAR_SOLVER= FGMRES
LINEAR_SOLVER_PREC= LU_SGS
LINEAR_SOLVER_ERROR= 1E-4
LINEAR_SOLVER_ITER= 15
% ----------------------- SLOPE LIMITER DEFINITION ----------------------------%
VENKAT_LIMITER_COEFF= 0.01
LIMITER_ITER= 999999
% -------------------- FLOW NUMERICAL METHOD DEFINITION -----------------------%
CONV_NUM_METHOD_FLOW= JST 
ENTROPY_FIX_COEFF= 0.001
JST_SENSOR_COEFF=( 0.5, 0.02 )
MUSCL_FLOW= NO
SLOPE_LIMITER_FLOW= VAN_ALBADA_EDGE
TIME_DISCRE_FLOW= EULER_IMPLICIT
SECOND_ORDER_EULER_IMPLICIT_FLOW = YES
% -------------------- MULTIGRID PARAMETERS -----------------------------------%
MGLEVEL= 0
MGCYCLE= W_CYCLE
% Multigrid Pre-Smoothing (Number of sweeps)
MG_PRE_SMOOTH= ( 1, 2, 3, 3 )
% Multigrid Post-Smoothing (Number of sweeps)
MG_POST_SMOOTH= ( 0, 1, 2, 2 )
% Multigrid Correction-Smoothing (Number of sweeps)
MG_CORRECTION_SMOOTH= ( 0, 1, 2, 2 )
% Damping factor for the multigrid correction
MG_DAMP_RESTRICTION= 0.9
MG_DAMP_PROLONGATION= 0.9
% -------------------- TURBULENT NUMERICAL METHOD DEFINITION ------------------%
CONV_NUM_METHOD_TURB= SCALAR_UPWIND
MUSCL_TURB= NO
SLOPE_LIMITER_TURB= VENKATAKRISHNAN_WANG
TIME_DISCRE_TURB= EULER_IMPLICIT
CFL_REDUCTION_TURB= 0.1
% --------------------------- CONVERGENCE PARAMETERS --------------------------%
ITER=2000
CONV_FIELD=RMS_ENERGY 
CONV_RESIDUAL_MINVAL= -8.0
CONV_STARTITER= 10
SCREEN_OUTPUT= (INNER_ITER, RMS_DENSITY, RMS_ENERGY, MassFlowIn_1, MassFlowOut_1)
% ------------------------- INPUT/OUTPUT INFORMATION --------------------------%
%EDGE_COLORING_GROUP_SIZE= 32
MESH_FILENAME= /phadcloud/home/phadcloud391e14312/ACADE_main/su2_cal/Rotor37_1206.su2
MESH_FORMAT= SU2
MESH_OUT_FILENAME= out.su2 
SOLUTION_FILENAME= restart_flow.dat
SOLUTION_ADJ_FILENAME= solution_adj.dat
TABULAR_FORMAT= TECPLOT
CONV_FILENAME= history
RESTART_FILENAME= restart_flow_rotor37s1.dat
RESTART_ADJ_FILENAME= restart_adj.dat
VOLUME_FILENAME= flow
VOLUME_ADJ_FILENAME= adjoint
GRAD_OBJFUNC_FILENAME= of_grad.dat
SURFACE_FILENAME= surface_flow
SURFACE_ADJ_FILENAME= surface_adjoint
VOLUME_OUTPUT = (COORDINATES,PRIMITIVE,SOURCE,Q_CRITERION)
OUTPUT_WRT_FREQ= 2000
HISTORY_WRT_FREQ_OUTER= 1
WRT_ZONE_HIST = YES
