% ------------- DIRECT, ADJOINT, AND LINEARIZED PROBLEM DEFINITION ------------%                  
SOLVER= RANS
KIND_TURB_MODEL= SST
SST_OPTIONS= V2003m
SST_CONSTANTS = (0.85, 1.0, 0.5, 0.856) % default values 0.85,1.0,0.5,0.856
%% Transition model (NONE, LM)
KIND_TRANS_MODEL= LM
HROUGHNESS= 1.0e-8
LM_OPTIONS = MENTER_LANGTRY
MATH_PROBLEM= DIRECT
RESTART_SOL= NO 
% -------------------- COMPRESSIBLE FREE-STREAM DEFINITION --------------------%
MACH_NUMBER= 0.1440
AOA= 0.0
FREESTREAM_PRESSURE= 101325
FREESTREAM_TEMPERATURE= 300
FREESTREAM_DENSITY= 1.225
REYNOLDS_NUMBER= 77779
REYNOLDS_LENGTH= 0.100703
FREESTREAM_OPTION= DENSITY_FS
FREESTREAM_INTERMITTENCY = 0.9
FREESTREAM_TURBULENCEINTENSITY = 0.01
FREESTREAM_TURB2LAMVISCRATIO = 100.0
FREESTREAM_VELOCITY= ( 0.0, 0.00, 50.00 )
INIT_OPTION= TD_CONDITIONS
LIMIT_TEMPERATURE= YES
MAX_TEMPERATURE_LIMIT= 1000.0
MIN_TEMPERATURE_LIMIT= 100.0 
% ---------------------- REFERENCE VALUE DEFINITION ---------------------------%
REF_ORIGIN_MOMENT_X = 0.00
REF_ORIGIN_MOMENT_Y = 0.00
REF_ORIGIN_MOMENT_Z = 0.00
REF_AREA= 1.0
REF_DIMENSIONALIZATION= DIMENSIONAL
% ------------------------------ EQUATION OF STATE ----------------------------%
FLUID_MODEL= STANDARD_AIR
GAMMA_VALUE= 1.4
GAS_CONSTANT= 287.058
% CRITICAL_TEMPERATURE= 273.15
% CRITICAL_PRESSURE= 101325.0
% ACENTRIC_FACTOR= 0.035 
% --------------------------- VISCOSITY MODEL ---------------------------------%
VISCOSITY_MODEL= SUTHERLAND
MU_CONSTANT= 1.716E-5
MU_REF= 1.716E-5
MU_T_REF= 273.15
SUTHERLAND_CONSTANT= 110.4
% --------------------------- THERMAL CONDUCTIVITY MODEL ----------------------%
CONDUCTIVITY_MODEL= CONSTANT_PRANDTL
% -------------------- BOUNDARY CONDITION DEFINITION --------------------------%
MARKER_HEATFLUX= (HUB_1, 0.0, SHROUD_1, 0.0, BLADE_1, 0.0 )
% Format: ( periodic marker, donor marker, rot_cen_x, rot_cen_y, rot_cen_z, rot_angle_x-axis, rot_angle_y-axis, rot_angle_z-axis, translation_x, translation_y, translation_z)
MARKER_PERIODIC= (PER1_1, PER2_1, 0.0, 0.0, 0.0, 0.0, 0.0, 0.0, 0.0, 0.0799, 0.0)
%-------- INFLOW/OUTFLOW BOUNDARY CONDITION SPECIFIC FOR TURBOMACHINERY --------%
MARKER_ANALYZE = (INFLOW_1, OUTFLOW_1)
% Mixing-plane interface markers must be specified to activate the transfer of information between zones
%
% Non reflecting boundary condition for inflow, outfolw and mixing-plane
% Format inlet:  ( marker, TOTAL_CONDITIONS_PT, Total Pressure , Total Temperature, Flow dir-norm, Flow dir-tang, Flow dir-span, under-relax-avg, under-relax-fourier)
% Format outlet: ( marker, STATIC_PRESSURE, Static Pressure value, -, -, -, -, under-relax-avg, under-relax-fourier)
% Format mixing-plane in and out: ( marker, MIXING_IN or MIXING_OUT, -, -, -, -, -, -, under-relax-avg, under-relax-fourier)
%
MARKER_INLET = (INFLOW_1,300.0, 24557.9, 0.0, 1.017607392972125, 1.0)
MARKER_OUTLET = (OUTFLOW_1,21994.4)
MARKER_INLET_TURBULENT= (INFLOW_1, 0.01, 15)
%MARKER_WALL_FUNCTIONS=(BLADE_1,STANDARD_WALL_FUNCTION)
%WALLMODEL_MINYPLUS= 0.00001
%---------------------------- TURBOMACHINERY SIMULATION -----------------------------%
% ------------------------ SURFACES IDENTIFICATION ----------------------------%
MARKER_PLOTTING= (BLADE_1)
MARKER_MONITORING= (BLADE_1)
% ------------- COMMON PARAMETERS DEFINING THE NUMERICAL METHOD ---------------%
NUM_METHOD_GRAD= WEIGHTED_LEAST_SQUARES
CFL_NUMBER=5.0
CFL_ADAPT= YES
CFL_ADAPT_PARAM= ( 0.99, 1.01, 1.0, 20.0)
% ------------------------ LINEAR SOLVER DEFINITION ---------------------------%
LINEAR_SOLVER= FGMRES
LINEAR_SOLVER_PREC= LU_SGS
LINEAR_SOLVER_ERROR= 1E-4
LINEAR_SOLVER_ITER= 15
% ----------------------- SLOPE LIMITER DEFINITION ----------------------------%
VENKAT_LIMITER_COEFF= 0.01
LIMITER_ITER= 999999
% -------------------- FLOW NUMERICAL METHOD DEFINITION -----------------------%
CONV_NUM_METHOD_FLOW= ROE 
ENTROPY_FIX_COEFF= 0.001
JST_SENSOR_COEFF=( 0.5, 0.02 )
MUSCL_FLOW= YES
SLOPE_LIMITER_FLOW= VAN_ALBADA_EDGE
TIME_DISCRE_FLOW= EULER_IMPLICIT
SECOND_ORDER_EULER_IMPLICIT_FLOW = YES
% -------------------- MULTIGRID PARAMETERS -----------------------------------%
MGLEVEL= 0
MGCYCLE= W_CYCLE
% Multigrid Pre-Smoothing (Number of sweeps)
MG_PRE_SMOOTH= ( 1, 2, 3, 3 )
% Multigrid Post-Smoothing (Number of sweeps)
MG_POST_SMOOTH= ( 0, 1, 2, 2 )
% Multigrid Correction-Smoothing (Number of sweeps)
MG_CORRECTION_SMOOTH= ( 0, 1, 2, 2 )
% Damping factor for the multigrid correction
MG_DAMP_RESTRICTION= 0.9
MG_DAMP_PROLONGATION= 0.9
% -------------------- TURBULENT NUMERICAL METHOD DEFINITION ------------------%
CONV_NUM_METHOD_TURB= SCALAR_UPWIND
MUSCL_TURB= NO
SLOPE_LIMITER_TURB= VENKATAKRISHNAN_WANG
TIME_DISCRE_TURB= EULER_IMPLICIT
CFL_REDUCTION_TURB= 1.0
% --------------------------- CONVERGENCE PARAMETERS --------------------------%
ITER=5000
CONV_FIELD=RMS_ENERGY 
CONV_RESIDUAL_MINVAL= -8.0
CONV_STARTITER= 10
SCREEN_OUTPUT= (INNER_ITER, RMS_DENSITY, RMS_ENERGY, MassFlowIn_1, MassFlowOut_1)
% ------------------------- INPUT/OUTPUT INFORMATION --------------------------%
MESH_FILENAME= T106A.su2
MESH_FORMAT= SU2
MESH_OUT_FILENAME= out.su2 
SOLUTION_FILENAME= restart_flow.dat
SOLUTION_ADJ_FILENAME= solution_adj.dat
TABULAR_FORMAT= TECPLOT
CONV_FILENAME= history
RESTART_FILENAME= restart_flow.dat
RESTART_ADJ_FILENAME= restart_adj.dat
VOLUME_FILENAME= flow
VOLUME_ADJ_FILENAME= adjoint
GRAD_OBJFUNC_FILENAME= of_grad.dat
SURFACE_FILENAME= surface_flow
SURFACE_ADJ_FILENAME= surface_adjoint
VOLUME_OUTPUT = (COORDINATES,PRIMITIVE,SOURCE,Q_CRITERION)
OUTPUT_WRT_FREQ= 100
HISTORY_WRT_FREQ_OUTER= 1
WRT_ZONE_HIST = YES
